         100
 Argon
 Ar   15.4187679       86.1198578       22.2647190    
 Ar   10.7141552       6.01817989      0.306874514    
 Ar   6.79800510       33.5612831       5.89485741    
 Ar   45.4121246       62.7449036       85.1625061    
 Ar   68.5324020       85.3765106       75.2531433    
 Ar   38.4521790       70.5642548       24.0005131    
 Ar   81.8338547       48.2709961       88.9822998    
 Ar   91.8283157       76.7782059       45.2689247    
 Ar   48.7056808       49.1498528       81.0880203    
 Ar   75.8297653       29.1886215       84.3352509    
 Ar   86.2656555       6.28316402       84.3062820    
 Ar   30.8651867       34.6136208       18.3328266    
 Ar   44.9736710       92.7639008       74.7962799    
 Ar   96.5784988       88.6327820       72.5946426    
 Ar   93.9123459       45.7423286       63.2201958    
 Ar   23.4514885       73.3657684       89.9586182    
 Ar   43.2801666       17.2327881       37.0268059    
 Ar   4.10053158       79.1947861       31.5958977    
 Ar   7.65768909       98.0260391       60.4266052    
 Ar   37.1488266       84.1274109       34.7504845    
 Ar   52.6982231       82.1537781       64.7862244    
 Ar   51.7370148       48.2678604       18.6543045    
 Ar   83.3585739       54.9784584       74.6176376    
 Ar   63.2615967       21.9166164       27.3901882    
 Ar   77.6499176       70.5097046       67.1619568    
 Ar   54.7138863       87.8050919       96.6859436    
 Ar   35.9689102       8.69165611       19.3329334    
 Ar   31.8645172       40.8727036       31.8096581    
 Ar   10.7311363       25.2467747       18.0286407    
 Ar   49.1668816       96.1627502       22.8854485    
 Ar   64.1445160       50.6199913       79.8623352    
 Ar   50.9082031       50.9598808       32.7502975    
 Ar   75.0375519       7.75706196      0.946545601    
 Ar   53.6934319       23.6360607       94.1466904    
 Ar   27.2103844       18.9422493       19.7582188    
 Ar   96.6999969       5.82343960       68.8038101    
 Ar   91.8650055       30.6184292       46.0642509    
 Ar   96.4369202       69.3761215       52.6164131    
 Ar   84.5761032       5.38702583       88.7311401    
 Ar   7.43309879      0.112158060       79.4096451    
 Ar  0.670474768       55.9430542       94.3682251    
 Ar   62.4521065       56.3572388       69.9099274    
 Ar   56.7328453       36.0006104       12.3600597    
 Ar   14.1916695       87.6892471       78.7729797    
 Ar   94.6213684       67.7168045       57.4901695    
 Ar   22.3410187       23.0300903       27.1342392    
 Ar   27.9265823       76.4713364       2.16557980    
 Ar   45.7834854       43.5286446       37.2237854    
 Ar   25.4433937       29.3723278       82.3104706    
 Ar   31.9449596       8.07142258       47.4276123    
 Ar   13.2248516       70.7049408       3.32368612    
 Ar   88.2423248       73.8704529       77.6264343    
 Ar   77.2202759       43.8203392       30.7089691    
 Ar   12.4252682       22.5250893       93.7673035    
 Ar   34.1681404       52.6422386       68.4950256    
 Ar   2.51262784       70.3502655       51.8610191    
 Ar   73.3860245       48.3759232       92.5268326    
 Ar   58.4716682       72.6783066       16.9864826    
 Ar   51.5409775       75.4366608       70.8671722    
 Ar   45.1160431       99.3167191       68.0994873    
 Ar   44.3694344       46.4655800       48.5414734    
 Ar   92.2099915       95.4135284       32.8850021    
 Ar   22.7223225       89.6770630       52.0587692    
 Ar   68.5023727       97.7245255       73.7774048    
 Ar   68.7285690       32.7789230       49.8165474    
 Ar   72.8929672       87.3677979       48.2379723    
 Ar   99.4361649       99.9141464       24.0041504    
 Ar   80.6019897       39.5480576       46.1323242    
 Ar   47.5741577       94.5933075       8.33365345    
 Ar   78.3081512       17.7003689       74.5568771    
 Ar   60.1203995       86.3283157       14.0330315    
 Ar   90.7753754       3.19275260       59.8403625    
 Ar   80.2448044       88.9430084       1.01032853    
 Ar   42.1077309       28.9139576       4.41510105    
 Ar   85.2200699       48.7880363       24.7668381    
 Ar   82.1546478       62.2373238       11.3203583    
 Ar   48.6731415       24.1462059       10.7404766    
 Ar   45.9574203       41.5612450       11.0294638    
 Ar   19.9763832       50.7893143       27.8087788    
 Ar   15.1499634       83.2011642       91.8019714    
 Ar   19.0739517       20.5931606       29.7807999    
 Ar   41.1063805       1.80659890       86.8589096    
 Ar   22.9588509       18.1519146       2.21381783    
 Ar   63.5685387       33.7555962       15.2143841    
 Ar   39.2236938       37.3576088       34.4884453    
 Ar   70.8344498       74.0414200       76.3597641    
 Ar   48.6094055       19.3858318       65.5025635    
 Ar   27.6443119       6.52012825       87.2549973    
 Ar   81.9175186       13.2886295       87.7372818    
 Ar   37.2479858       98.7635193       70.4697495    
 Ar   91.0085831       63.8396988       29.2137375    
 Ar   63.1116676       56.5448570       9.34851742    
 Ar   84.4397888       76.6740952       5.84605932    
 Ar   65.4565125       94.7614288       53.6637611    
 Ar   69.7580795       33.2901840       92.7243500    
 Ar   21.0185776       6.82411194       19.6581612    
 Ar   98.5857162       55.5385780       79.7441254    
 Ar   31.7225285       38.8960609       88.0669937    
 Ar   4.52326536       16.1199570       16.4412613    
 Ar   81.6186829       19.1016083       39.3944969    
