         375
 water molecule
 O   3.22895002       9.55627060       10.3319998    
 H   2.59539604       10.1310625       10.8323040    
 H   3.42653012       9.37701607       11.2864161    
 O   1.26310754       12.9124975       4.58581400    
 H   1.64880824       13.2503738       5.43384457    
 H  0.744015276       12.4577694       5.29704332    
 O   6.94466686       5.83703327       10.1418686    
 H   7.11285257       5.05658817       9.55475712    
 H   7.10699129       5.08378744       10.7650480    
 O   15.2486515       2.71236539       11.1579142    
 H   14.9167986       1.84802604       10.8045416    
 H   15.0419044       2.17387557       11.9637461    
 O   15.0263262       6.75171089       3.73830581    
 H   14.9611387       6.89012957       4.71742344    
 H   15.4132805       5.93005562       4.13482904    
 O   12.3727951       5.74177551       12.0657635    
 H   11.9628716       6.43647957       12.6414633    
 H   12.5517254       5.43853998       12.9921074    
 O   4.04455090       3.68409967       8.86874008    
 H   3.41625142       3.05358982       8.43310452    
 H   3.58763719       3.22557855       9.61911964    
 O   4.51180077       9.18729687       4.85301924    
 H   4.76881266       9.35755444       5.79484606    
 H   3.81758404       8.72741318       5.39028168    
 O   2.64073610       1.45763505       7.08870649    
 H   2.12043881       1.70041156       6.28097439    
 H   1.80067003       1.84961915       7.43901873    
 O   9.67861462       4.33523798       9.33960342    
 H   9.87613678       5.01699877       8.64803410    
 H   9.91489887       5.15078974       9.85060883    
 O   13.8910112       12.0756817       11.7579260    
 H   13.9645939       12.2921619       10.7936630    
 H   14.2098465       13.0136948       11.7343140    
 O   9.57773113       5.31690454       14.1109772    
 H   10.1680298       4.61627626       13.7331572    
 H   9.96303654       4.85958433       14.9012175    
 O   1.43791103       12.0169754       7.50045729    
 H  0.569071174       12.2745333       7.90153360    
 H   1.58930421       11.9720964       8.47879601    
 O   1.71482348       3.43743134       15.0029240    
 H   2.27883101       2.78456759       15.4905157    
 H   1.54967594       3.62859702       15.9611845    
 O   3.26164150       10.6165648       14.4673576    
 H   3.13766670       9.63553429       14.4018517    
 H   3.22222781       10.3046799       15.4071741    
 O   13.4977913       14.2992735       3.13776827    
 H   14.0660238       14.1573639       2.33835959    
 H   14.3922167       14.0759010       3.50134730    
 O   2.41817045       6.20087337       12.5224409    
 H   1.61106861       6.77403402       12.4760237    
 H   2.17669129       6.37235880       13.4681473    
 O   6.52605963       5.32674599       4.69573498    
 H   7.48189831       5.21184111       4.46068144    
 H   6.99441528       5.27044296       5.56725883    
 O   9.90047073       2.71941733       3.59161258    
 H   10.5481577       3.06865287       4.25540257    
 H   9.49974632       2.50334501       4.47184753    
 O   4.67983198       2.12639666       2.85760331    
 H   4.20394516       1.42008638       2.35090947    
 H   4.28518152       1.54065704       3.55275869    
 O   5.54014921       13.6575432       10.7042055    
 H   5.50175381       14.2602015       11.4899597    
 H   5.57872581       13.0520401       11.4877605    
 O   13.9790201       10.9761190       15.3026419    
 H   13.3978720       11.3181248       16.0288506    
 H   14.4368773       10.7066698       16.1392097    
 O   15.3526802       1.67450905       15.4415083    
 H   14.8931150       1.73461950       16.3174458    
 H   16.0761204       1.57988417       16.1121521    
 O   3.22160220       15.0683241       13.4480209    
 H   2.31074858       15.4129829       13.6314240    
 H   3.15630436       15.0930319       14.4365587    
 O   10.4179831       7.65128994       10.2255430    
 H   10.3242874       7.72290564       9.24158478    
 H   9.63805389       8.24742508       10.0898447    
 O   12.1547232       1.20892632       14.5849199    
 H   11.5040970       1.76219654       14.0822678    
 H   11.6191883       1.66432703       15.2834139    
 O   7.59557152       14.8705072       2.64845037    
 H   6.95359898       15.5266571       3.02183962    
 H   7.68518829       14.7789116       3.63113046    
 O   9.65924931       13.2965946       10.1911211    
 H   10.5743341       12.9276114       10.2835960    
 H   9.80857944       13.2363815       11.1689529    
 O   3.91964746       14.2702332       4.32308578    
 H   3.61439300       13.7188816       5.08788157    
 H   4.20046997       14.7774553       5.12679291    
 O   5.68583393       8.17826653       14.3304977    
 H   4.86623430       8.66127968       14.0529451    
 H   5.24650192       8.43717766       15.1802235    
 O   9.12187958       14.4386835       13.8350611    
 H   9.60705948       13.7258768       14.3235159    
 H   8.97919464       14.6483107       14.7930689    
 O   1.47757721       9.74613571       1.64558995    
 H   1.38333786       10.1191206       2.55887079    
 H   1.67005002       8.98435783       2.24951839    
 O   12.0247154       7.87742186       4.91091061    
 H   12.5487175       8.48584652       4.33011580    
 H   12.5243301       8.45753002       5.54014921    
 O   1.33833432       12.6793680       13.3528299    
 H   2.04689121       13.3251810       13.1019239    
 H   1.69755685       13.0067806       14.2164507    
 O   10.4952011       10.3250456       15.0332575    
 H   10.9957609       9.85698128       15.7491045    
 H   10.1165190       10.6791439       15.8778257    
 O   15.4576597       14.5168667       9.64635849    
 H   14.8192511       15.0772285       10.1567602    
 H   15.6666355       14.3334379       10.5975494    
 O   3.16751599       6.97059011       8.13430214    
 H   3.69759917       7.13250685       8.95581055    
 H   2.54213309       6.77956343       8.87894058    
 O   10.0023422       12.8754416       6.01866865    
 H   9.60854816       13.2055845       6.86602497    
 H   10.5304632       12.4326839       6.73080254    
 O   1.44635797       14.7296333       9.55791092    
 H   1.59686792       14.2685289       10.4220924    
 H   1.22519016       15.4072056       10.2464314    
 O   14.0730152       4.81591797       6.86434746    
 H   13.6520443       5.69493580       7.04376841    
 H   14.0411167       4.88252401       7.85259199    
 O   6.31323099       1.41826642       5.29258204    
 H   6.11240053       1.73508465       4.37531757    
 H   5.78724146       2.24803734       5.42256641    
 O   14.3218622       10.8291235       6.16346502    
 H   14.9272165       11.2558641       6.82188749    
 H   13.9550009       10.5705070       7.04698706    
 O   12.5939064       13.3649387       8.88093376    
 H   11.6087532       13.3655987       8.77344704    
 H   12.2398701       13.3651762       9.80653572    
 O   13.3661747       7.19008160       14.8247719    
 H   13.7259979       7.62129450       14.0082769    
 H   13.9634953       7.90591192       15.1607418    
 O   9.37350750       1.12340522       10.7397804    
 H   9.07536411       1.39063919       9.83326054    
 H   8.64489460       1.77648044       10.8969345    
 O   14.5164051       1.32273293       7.90375996    
 H   14.5332327      0.517707229       7.32606506    
 H   14.5323544      0.559736788       8.53594971    
 O   5.42644358       12.4105511       13.7286329    
 H   5.27488804       13.0800323       13.0138559    
 H   5.23532581       13.2547941       14.2111359    
 O   1.37829781       1.54466140       9.76787949    
 H   1.57005930       1.85166705       8.84535217    
 H   1.89969063       2.37939882       9.88382721    
 O   14.5905409       13.9345694       5.90084314    
 H   15.2050819       14.4945459       6.44014454    
 H   14.3609610       13.7253733       6.84191227    
 O   11.8074007       10.8898859       4.80356598    
 H   12.4633150       11.2289066       4.14256477    
 H   12.5418682       11.2695074       5.34994173    
 O   1.86315703       7.08098888       2.59680605    
 H   1.90652621       6.19488096       3.03840804    
 H   1.85328531       7.28268623       3.56701303    
 O   8.44741726       9.23962021       8.60989571    
 H   8.74176502       10.1052589       8.99213982    
 H   8.40310764       9.10931015       9.59129143    
 O   3.18996334       3.98131609       4.41427898    
 H   2.28806043       4.01890993       4.82322741    
 H   3.35623455       3.97438550       5.39120626    
 O   14.9082355       12.1467152       1.94939280    
 H   14.6172829       13.0517015       1.66934490    
 H   14.7514734       12.6343126       2.79777718    
 O   9.34283161       4.82565403       5.96817303    
 H   9.66151810       3.92422605       5.70750570    
 H   9.50776482       4.35912800       6.82679510    
 O   3.42453957       4.25006580       1.01703858    
 H   3.03632760       3.69188833      0.296059966    
 H   2.92781568       3.53586817       1.49166298    
 O   11.7003555       10.0242682       8.39823627    
 H   11.2670517       9.94866848       9.28627586    
 H   12.4365368       10.1527119       9.04909801    
 O   13.2472601       3.29146171       4.19278049    
 H   13.3999014       2.47634196       4.73533154    
 H   13.1894131       3.60036898       5.13262653    
 O   4.35251617       1.47866678       15.3908014    
 H   4.41048622       1.43372631       14.4025192    
 H   5.12271166      0.881583393       15.2108822    
 O   15.4036970       5.66407013       11.4670000    
 H   15.4275885       5.66133690       12.4577084    
 H   14.4577122       5.77229166       11.7417402    
 O   6.09392309       11.5933743       5.03255653    
 H   6.63437557       10.7920113       4.81390429    
 H   6.34936428       11.2146158       5.91197252    
 O   9.63473034       9.31206703       2.56072283    
 H   10.0653048       8.84544754       3.32161236    
 H   9.24492836       9.73449993       3.36799335    
 O   9.31345844       1.87561011       7.67123795    
 H   8.74233437       2.28430009       8.37043095    
 H   9.71846962       1.58578873       8.52800560    
 O   13.0978880       4.86265469       1.43258071    
 H   12.9514036       5.76775360       1.80863798    
 H   13.1188173       4.73333693       2.41488409    
 O   6.89372301       13.8129015       8.02879143    
 H   7.36853027       14.4863882       7.47828770    
 H   7.32105970       14.4190540       8.68609142    
 O   7.14176083       5.48066521       1.20139933    
 H   6.74597549       6.27229977       1.64721298    
 H   7.23412609       5.29591990       2.17063570    
 O   4.15129185       4.60739136       14.2382479    
 H   4.22351742       4.64382124       15.2259407    
 H   3.31664371       4.18640327       14.5672054    
 O   10.2546024       12.5625629       1.67116928    
 H   11.0671892       12.9192371       1.23007154    
 H   10.8515425       12.8245821       2.41755390    
 O   7.44003439       1.35609269       2.15089989    
 H   7.53686476       1.23468721       3.12965703    
 H   6.87430763       2.06539726       2.54954934    
 O   13.9319677       14.1822014       14.1010876    
 H   13.3097162       13.5930586       13.6032972    
 H   13.4243784       13.7016201       14.8035660    
 O   10.3884325       12.0358648       12.7168818    
 H   10.3730059       11.4556608       13.5201292    
 H   10.4051666       12.6652527       13.4821739    
 O   7.19366264       15.3865309       5.49603558    
 H   7.91571856       14.7179537       5.61317110    
 H   7.29381657       15.2937946       6.47759056    
 O   6.94404173       10.4739780       12.3087721    
 H   7.39850521       9.60905743       12.4744711    
 H   6.98485231       10.3963089       13.2958803    
 O   14.3258495       3.97590637       13.5491762    
 H   14.2302303       4.08514738       12.5688677    
 H   13.6770620       4.71712208       13.4407587    
 O   7.95340395       1.57223046       13.6703205    
 H   7.64224625       2.12715530       14.4301367    
 H   8.23386192       1.07205582       14.4785595    
 O   13.7306805       8.38601685       1.19902766    
 H   13.4978781       9.06103611       1.88622022    
 H   13.8882990       7.92899561       2.06411076    
 O   15.3472319       8.21586418       9.71655178    
 H   15.3357000       8.22411346       8.72565365    
 H   14.5647850       8.77559662       9.47873402    
 O   6.21958351       15.0480900       15.2878256    
 H   6.55760622       14.7729101       16.1778240    
 H   5.63778782       15.5217228       15.9353342    
 O   8.85548973       8.15369415       5.24929619    
 H   9.52253723       8.11111927       4.51764297    
 H   9.73106194       8.09780979       5.71008968    
 O   1.16497219       1.12490606       1.58702326    
 H   1.41718888      0.168735862       1.65187979    
 H   1.21299386      0.942852736       2.55997324    
 O   6.69993496       10.6457138       1.49011803    
 H   6.61752796       10.4225798      0.528088212    
 H   6.35664225       9.71618080       1.47599292    
 O   12.4983683       3.25322151       10.7738438    
 H   12.9166355       3.60762000       11.5993958    
 H   11.9953108       2.82697964       11.5136623    
 O   1.13340473       1.15885127       13.4484701    
 H   1.29010892       1.16023457       12.4699392    
 H   2.11962605       1.16755724       13.3516560    
 O   4.66560936       10.6539278       7.77196312    
 H   4.39827156       10.6552162       8.72622204    
 H   5.52074051       10.6498070       8.27277660    
 O   11.8906240       6.05529833       8.31569099    
 H   11.7887287       6.08449459       7.33037567    
 H   10.9485836       6.32522202       8.16810226    
 O   1.14219809       4.07385635       6.70287275    
 H  0.899967611       4.91192627       7.17302608    
 H   1.20698237       3.84971547       7.66601610    
 O   9.89148712       8.56751537       12.8518038    
 H   9.38485622       8.76237202       12.0226860    
 H   9.01437759       8.90486336       13.1663780    
 O   1.08222616       9.12713051       4.51962948    
 H   1.13937271       8.86030674       3.56693840    
 H   1.28971398       8.15834713       4.54174042    
 O   4.10590076       2.95602465       11.5861349    
 H   3.89772296       3.36136866       12.4661570    
 H   4.44192934       2.30174136       12.2502728    
 O   14.0387030       1.51323795       2.17288089    
 H   14.4307556      0.760160923       1.66175413    
 H   14.3665142      0.883558810       2.86434650    
 O   6.46701479       2.04541183       9.71542931    
 H   6.88236094       2.55386639       10.4577513    
 H   6.11821079       1.61841619       10.5388927    
 O   1.19127142       1.51839840       4.36067772    
 H   1.38479376       2.34863234       3.85536432    
 H   1.35134757       2.20514417       5.05698013    
 O   6.00170517       7.12747145       6.92467546    
 H   6.83847952       7.55673456       6.61222839    
 H   6.48300791       7.37437868       7.75501633    
 O   3.85252452       15.2150688       7.76944733    
 H   4.68819141       14.9289875       7.32011557    
 H   4.47583771       15.0016842       8.50973701    
 O   11.6973429       14.9570293       11.8513327    
 H   11.8739710       15.1299715       12.8110065    
 H   11.0789270       14.3515205       12.3340368    
 O   15.3756781       9.32182026       12.8821306    
 H   15.0984335       9.81829262       13.6937532    
 H   15.6880541       8.76243591       13.6381674    
 O   6.09273100       7.96301031       2.29081249    
 H   5.31040764       7.67874718       2.82862830    
 H   6.38307381       8.06850815       3.23243475    
 O   12.6869678       8.56058502       12.2968960    
 H   12.9174938       8.68439198       13.2527256    
 H   11.9309921       8.15457916       12.7926188    
 O   11.3458757       13.1849813       15.4414396    
 H   11.4827738       12.5769062       16.2118835    
 H   11.2169504       13.7576437       16.2398853    
 O   1.57603145       12.7193642       1.80954838    
 H   2.18918467       12.8301220       1.03892732    
 H   2.46518397       12.8799772       2.21660185    
 O   2.17752409       8.02245331       14.7738218    
 H   2.36206412       7.04912138       14.7993402    
 H   2.21976972       7.79963493       15.7385225    
 O   15.3916559       11.3743944       9.42890835    
 H   15.2192841       11.3159914       8.45476341    
 H   14.4554949       11.0572062       9.35766983    
 O   10.4854593       6.55744123       1.36636114    
 H   11.1564093       7.18795443      0.999809623    
 H   10.9141378       6.96028423       2.16387773    
 O   6.80453682       4.33078289       13.0664883    
 H   6.41341114       3.59000587       13.5959702    
 H   6.94437742       4.59563541       14.0111465    
 O   4.56663227       14.7960796       1.24674571    
 H   3.98020720       14.5983887      0.472727001    
 H   3.70833540       14.5067368       1.64885044    
 O   9.79213905       15.3218403       7.73907232    
 H   10.2184649       15.9661551       8.35970497    
 H   9.56909847       14.9847555       8.64389706    
 O   4.05572653       11.6508703       2.57196999    
 H   3.32873678       10.9803619       2.63510370    
 H   3.91607523       11.5220690       3.54458952    
 O   1.17132843       8.90276527       7.42867422    
 H   1.27307999       9.01811504       6.44968414    
 H   1.82356691       9.64217091       7.32894897    
 O   11.2760220       1.49087501       1.42937541    
 H   10.4384136      0.971095264       1.32777739    
 H   10.9799032       1.30711806       2.35707593    
 O   11.1771603       15.3325987       1.43164277    
 H   11.7154551       16.1439190       1.24704063    
 H   11.4125175       15.6873302       2.32654715    
 O   6.21718073       3.56965065       7.09020710    
 H   6.22485209       3.56156468       6.09926987    
 H   6.87881327       2.87225676       6.84944773    
 O   8.07476521       15.3123865       11.3235369    
 H   7.50324678       15.4286528       10.5223322    
 H   7.17028522       15.4963894       11.6842871    
 O   1.48210144       5.25187778       9.82666588    
 H   1.32565701       5.94859886       10.5138235    
 H   1.58800697       4.78023052       10.6917753    
 O   11.9951763       2.21694279       6.76218128    
 H   12.2070951       2.07473516       5.80460691    
 H   12.8180647       1.66474628       6.76596689    
 O   15.1583681       7.78332996       6.56388807    
 H   14.5123425       7.85769558       5.81609058    
 H   14.2758207       7.88492203       7.00305843    
 O   1.49964345       11.8068895       10.5680866    
 H   2.19896150       11.1057138       10.5308409    
 H   1.70259833       11.6033955       11.5164957    
 O   1.82071686       15.4619198       1.12950718    
 H   1.70860434       14.9295492       1.95781446    
 H   1.95735800       16.1107655       1.86599159    
 O   9.94846916       15.2982969       4.16111803    
 H   9.94902039       14.9333658       5.08247900    
 H   9.94726276       16.0968456       4.74797297    
 O   1.16759121       15.2785759       6.63717413    
 H   1.29802680       15.0437622       5.68327141    
 H   1.64874113       14.4123983       6.65484810    
 O   6.02972412       8.53074741       10.0917253    
 H   6.93959999       8.16556168       10.2361069    
 H   6.13108206       8.49006653       11.0766888    
 O   8.16595650       12.0851631       15.2335138    
 H   7.96796370       12.1244373       16.2037392    
 H   9.03621197       11.9125385       15.6750307    
 O   15.4248714       1.04291356       4.99747658    
 H   16.4019070       1.11412203       4.84776497    
 H   15.8173065       1.07151508       5.90701342    
 O   6.94310045       5.86898565       15.4037380    
 H   7.00026560       5.59035397       16.3530426    
 H   6.77307129       6.69773293       15.9198284    
 O   10.0005016       2.83376026       15.4006586    
 H   10.0945129       2.62558126       14.4363432    
 H   10.4082460       1.93084431       15.3768196    
 O   14.7012625       9.58333588       3.57293797    
 H   13.8479042       9.64636612       4.07282639    
 H   14.9668503       9.56371880       4.52748442    
